# Packages
 &PACKAGES
# useOBCS=.FALSE.,
# useKPP =.FALSE.,
 useFLT=.TRUE.,
 useDiagnostics=.TRUE.,
 usePTRACERS=.TRUE.,
 &
